Circuit: * C:\Users\lenovo\Documents\LTSpice_Projects\Draft1.asc

WARNING: Node N002 is floating.
WARNING: Node N003 is floating.
WARNING: Node N001 is floating.
WARNING: Node N004 is floating.

Model "pmos": Oxide thickness thinner than recommended for a level 1 MOSFET.
Instance "m6": Length shorter than recommended for a level 1 MOSFET.
Instance "m6": Width narrower than recommended for a level 1 MOSFET.
Instance "m5": Length shorter than recommended for a level 1 MOSFET.
Instance "m5": Width narrower than recommended for a level 1 MOSFET.
Instance "m4": Length shorter than recommended for a level 1 MOSFET.
Instance "m3": Length shorter than recommended for a level 1 MOSFET.
Model "nmos": Oxide thickness thinner than recommended for a level 1 MOSFET.
Instance "m7": Length shorter than recommended for a level 1 MOSFET.
Instance "m2": Length shorter than recommended for a level 1 MOSFET.
Instance "m1": Length shorter than recommended for a level 1 MOSFET.
Direct Newton iteration for .op point succeeded.

Date: Wed Jan 06 01:02:49 2021
Total elapsed time: 0.384 seconds.

tnom = 27
temp = 27
method = modified trap
totiter = 10830
traniter = 10805
tranpoints = 3804
accept = 2527
rejected = 1277
matrix size = 17
fillins = 0
solver = Normal
Matrix Compiler1: 750 bytes object code size  0.4/0.2/[0.2]
Matrix Compiler2: 1.48 KB object code size  0.3/0.4/[0.3]

