Circuit: * C:\Users\lenovo\Documents\LTSpice_Projects\hw_1.asc

Limiting rise time of source v2 to 0.002
Limiting fall time of source v2 to 0.002
Model "pmos": Oxide thickness thinner than recommended for a level 1 MOSFET.
Model "nmos": Oxide thickness thinner than recommended for a level 1 MOSFET.
Direct Newton iteration for .op point succeeded.

Date: Mon Dec 07 21:17:19 2020
Total elapsed time: 0.153 seconds.

tnom = 27
temp = 27
method = modified trap
totiter = 3230
traniter = 3206
tranpoints = 1492
accept = 1334
rejected = 158
matrix size = 5
fillins = 0
solver = Normal
Matrix Compiler1:       7 opcodes  0.1/[0.1]/0.1
Matrix Compiler2: 301 bytes object code size  0.1/0.1/[0.1]

